Version 4
SHEET 1 1804 680
WIRE 704 -96 704 -128
WIRE 256 -64 256 -96
WIRE 208 -48 112 -48
WIRE 496 -48 496 -64
WIRE 704 0 704 -32
WIRE -64 48 -144 48
WIRE 112 64 112 -48
WIRE 112 64 0 64
WIRE 256 80 256 32
WIRE 448 80 256 80
WIRE -144 112 -144 48
WIRE 256 128 256 80
WIRE 704 128 704 80
WIRE -144 208 -144 192
WIRE 112 208 112 64
WIRE 208 208 112 208
WIRE 256 256 256 224
FLAG 496 -48 0
FLAG 496 -144 VDD_3V3
IOPIN 496 -144 Out
FLAG 256 -96 VDD_3V3
IOPIN 256 -96 Out
FLAG 256 256 0
FLAG -144 208 0
FLAG 448 80 OUTPUT_Pin
IOPIN 448 80 Out
FLAG 704 -128 VDD_3V3
IOPIN 704 -128 Out
FLAG 704 128 OUTPUT_Pin
IOPIN 704 128 Out
FLAG -144 48 OutputData
SYMBOL voltage 496 -160 R0
WINDOW 123 0 0 Left 0
WINDOW 39 0 0 Left 0
SYMATTR InstName V1
SYMATTR Value 3.3
SYMBOL res 688 -16 R0
SYMATTR InstName R1
SYMATTR Value 510
SYMBOL nmos 208 128 R0
SYMATTR InstName M1
SYMATTR Value AON6560
SYMBOL voltage -144 96 R0
WINDOW 123 0 0 Left 0
WINDOW 39 0 0 Left 0
WINDOW 3 -35 151 Left 1
SYMATTR Value PULSE(0 3.3 5m 1u 1u 5m 10m 3)
SYMATTR InstName V2
SYMBOL pmos 208 32 M180
SYMATTR InstName M2
SYMATTR Value AON7423
SYMBOL LED 688 -96 R0
SYMATTR InstName LED_PC13
SYMBOL Digital\\schmitt -64 -16 R0
WINDOW 39 37 116 Left 2
SYMATTR SpiceLine vhigh=3.3
SYMATTR InstName A1
TEXT 464 304 Left 2 !.tran 35m
TEXT -128 -248 Left 2 ;Módulo de Saída do MCU STM32F103C8T6
TEXT 136 8 Left 2 ;PUSH
TEXT 144 152 Left 2 ;PULL
TEXT 680 -280 Left 2 ;BLUE PILL
TEXT 264 -72 Left 0 ;SOURCE
TEXT 264 32 Left 0 ;DRAIN
TEXT 264 120 Left 0 ;DRAIN
TEXT 168 200 Left 0 ;GATE
TEXT 168 -40 Left 0 ;GATE
TEXT 264 232 Left 0 ;SOURCE
RECTANGLE Normal 416 320 -224 -272 2
RECTANGLE Normal 848 320 640 -304 2
